<?xml version="1.0" encoding="UTF-8"?>

<!-- generated on 11/20/20 15:05:44 by Eclipse SUMO netedit Version 1.6.0
<configuration xmlns:xsi="http://www.w3.org/2001/XMLSchema-instance" xsi:noNamespaceSchemaLocation="http://sumo.dlr.de/xsd/netconvertConfiguration.xsd">

    <input>
        <sumo-net-file value="Y:\850_release_smarts_virtual_map\share\object_model\config\smarts_config\scenarios\cut_in_-50m_30km_7s\map.net.xml"/>
    </input>

    <output>
        <output-file value="Y:\850_release_smarts_virtual_map\share\object_model\config\smarts_config\scenarios\cut_in_-50m_30km_7s\map.net.xml"/>
    </output>

    <processing>
        <geometry.min-radius.fix.railways value="false"/>
        <geometry.max-grade.fix value="false"/>
        <offset.disable-normalization value="true"/>
        <lefthand value="false"/>
    </processing>

    <junctions>
        <no-turnarounds value="true"/>
        <junctions.corner-detail value="5"/>
        <junctions.limit-turn-speed value="5.5"/>
        <rectangular-lane-cut value="false"/>
    </junctions>

    <pedestrian>
        <walkingareas value="false"/>
    </pedestrian>

    <report>
        <aggregate-warnings value="5"/>
    </report>

</configuration>
-->

<net version="1.6" junctionCornerDetail="5" limitTurnSpeed="5.50" xmlns:xsi="http://www.w3.org/2001/XMLSchema-instance" xsi:noNamespaceSchemaLocation="http://sumo.dlr.de/xsd/net_file.xsd">

    <location netOffset="0.00,0.00" convBoundary="623428.00,4856694.05,624362.29,4857388.13" origBoundary="-10000000000.00,-10000000000.00,10000000000.00,10000000000.00" projParameter="!"/>

    <edge id=":gneJ17_0" function="internal">
        <lane id=":gneJ17_0_0" index="0" speed="6.44" length="8.88" width="3.00" shape="623944.88,4857064.83 623944.53,4857062.42 623943.50,4857060.70 623941.78,4857059.67 623939.37,4857059.32"/>
    </edge>
    <edge id=":gneJ17_1" function="internal">
        <lane id=":gneJ17_1_0" index="0" speed="13.89" length="26.01" width="3.00" shape="623944.88,4857064.83 623944.87,4857038.82"/>
        <lane id=":gneJ17_1_1" index="1" speed="13.89" length="26.01" width="3.00" shape="623947.88,4857064.83 623947.87,4857038.82"/>
        <lane id=":gneJ17_1_2" index="2" speed="13.89" length="26.01" width="3.00" shape="623950.88,4857064.83 623950.87,4857038.82"/>
    </edge>
    <edge id=":gneJ17_4" function="internal">
        <lane id=":gneJ17_4_0" index="0" speed="10.12" length="7.57" width="3.00" shape="623950.88,4857064.83 623951.78,4857058.48 623952.38,4857057.49"/>
    </edge>
    <edge id=":gneJ17_5" function="internal">
        <lane id=":gneJ17_5_0" index="0" speed="3.53" length="2.19" width="3.00" shape="623950.88,4857064.83 623951.63,4857063.70 623952.38,4857063.33"/>
    </edge>
    <edge id=":gneJ17_25" function="internal">
        <lane id=":gneJ17_25_0" index="0" speed="10.12" length="15.83" width="3.00" shape="623952.38,4857057.49 623954.50,4857053.95 623959.03,4857051.23 623965.38,4857050.33"/>
    </edge>
    <edge id=":gneJ17_26" function="internal">
        <lane id=":gneJ17_26_0" index="0" speed="3.53" length="2.19" width="3.00" shape="623952.38,4857063.33 623953.13,4857063.70 623953.88,4857064.83"/>
    </edge>
    <edge id=":gneJ17_6" function="internal">
        <lane id=":gneJ17_6_0" index="0" speed="6.43" length="8.87" width="3.00" shape="623965.38,4857059.33 623962.97,4857059.67 623961.25,4857060.70 623960.22,4857062.42 623959.88,4857064.83"/>
    </edge>
    <edge id=":gneJ17_7" function="internal">
        <lane id=":gneJ17_7_0" index="0" speed="13.89" length="26.00" width="3.00" shape="623965.38,4857059.33 623939.37,4857059.32"/>
        <lane id=":gneJ17_7_1" index="1" speed="13.89" length="26.00" width="3.00" shape="623965.38,4857056.33 623939.37,4857056.32"/>
        <lane id=":gneJ17_7_2" index="2" speed="13.89" length="26.00" width="3.00" shape="623965.38,4857053.33 623939.37,4857053.32"/>
    </edge>
    <edge id=":gneJ17_10" function="internal">
        <lane id=":gneJ17_10_0" index="0" speed="10.12" length="23.39" width="3.00" shape="623965.38,4857053.33 623959.03,4857052.42 623954.50,4857049.70 623951.78,4857045.17 623950.87,4857038.82"/>
    </edge>
    <edge id=":gneJ17_11" function="internal">
        <lane id=":gneJ17_11_0" index="0" speed="3.53" length="4.38" width="3.00" shape="623965.38,4857053.33 623964.25,4857052.58 623963.88,4857051.83 623964.25,4857051.08 623965.38,4857050.33"/>
    </edge>
    <edge id=":gneJ17_12" function="internal">
        <lane id=":gneJ17_12_0" index="0" speed="6.44" length="8.88" width="3.00" shape="623959.87,4857038.82 623960.22,4857041.23 623961.25,4857042.95 623962.97,4857043.98 623965.38,4857044.33"/>
    </edge>
    <edge id=":gneJ17_13" function="internal">
        <lane id=":gneJ17_13_0" index="0" speed="13.89" length="26.00" width="3.00" shape="623959.87,4857038.82 623959.88,4857064.83"/>
        <lane id=":gneJ17_13_1" index="1" speed="13.89" length="26.00" width="3.00" shape="623956.87,4857038.82 623956.88,4857064.83"/>
        <lane id=":gneJ17_13_2" index="2" speed="13.89" length="26.00" width="3.00" shape="623953.87,4857038.82 623953.88,4857064.83"/>
    </edge>
    <edge id=":gneJ17_16" function="internal">
        <lane id=":gneJ17_16_0" index="0" speed="10.12" length="7.56" width="3.00" shape="623953.87,4857038.82 623952.97,4857045.17 623952.37,4857046.15"/>
    </edge>
    <edge id=":gneJ17_17" function="internal">
        <lane id=":gneJ17_17_0" index="0" speed="3.53" length="2.19" width="3.00" shape="623953.87,4857038.82 623953.12,4857039.95 623952.37,4857040.32"/>
    </edge>
    <edge id=":gneJ17_27" function="internal">
        <lane id=":gneJ17_27_0" index="0" speed="10.12" length="15.83" width="3.00" shape="623952.37,4857046.15 623950.25,4857049.70 623945.72,4857052.42 623939.37,4857053.32"/>
    </edge>
    <edge id=":gneJ17_28" function="internal">
        <lane id=":gneJ17_28_0" index="0" speed="3.53" length="2.19" width="3.00" shape="623952.37,4857040.32 623951.62,4857039.95 623950.87,4857038.82"/>
    </edge>
    <edge id=":gneJ17_18" function="internal">
        <lane id=":gneJ17_18_0" index="0" speed="6.44" length="8.87" width="3.00" shape="623939.37,4857044.32 623941.78,4857043.98 623943.50,4857042.95 623944.53,4857041.23 623944.87,4857038.82"/>
    </edge>
    <edge id=":gneJ17_19" function="internal">
        <lane id=":gneJ17_19_0" index="0" speed="13.89" length="26.07" width="3.00" shape="623939.37,4857044.32 623965.38,4857044.33"/>
        <lane id=":gneJ17_19_1" index="1" speed="13.89" length="26.07" width="3.00" shape="623939.37,4857047.32 623947.12,4857046.85 623952.38,4857045.82 623957.64,4857044.79 623965.38,4857044.33"/>
        <lane id=":gneJ17_19_2" index="2" speed="13.89" length="26.07" width="3.00" shape="623939.37,4857047.32 623965.38,4857047.33"/>
        <lane id=":gneJ17_19_3" index="3" speed="13.89" length="26.07" width="3.00" shape="623939.37,4857050.32 623965.38,4857050.33"/>
    </edge>
    <edge id=":gneJ17_23" function="internal">
        <lane id=":gneJ17_23_0" index="0" speed="10.12" length="23.39" width="3.00" shape="623939.37,4857050.32 623945.71,4857051.23 623950.25,4857053.95 623952.97,4857058.48 623953.88,4857064.83"/>
    </edge>
    <edge id=":gneJ17_24" function="internal">
        <lane id=":gneJ17_24_0" index="0" speed="3.53" length="4.38" width="3.00" shape="623939.37,4857050.32 623940.50,4857051.07 623940.87,4857051.82 623940.50,4857052.57 623939.37,4857053.32"/>
    </edge>

    <edge id="gneE10" from="gneJ17" to="gneJ12" priority="-1">
        <lane id="gneE10_0" index="0" speed="13.89" length="344.77" width="3.00" shape="623944.87,4857038.82 623944.94,4856694.05"/>
        <lane id="gneE10_1" index="1" speed="13.89" length="344.77" width="3.00" shape="623947.87,4857038.82 623947.94,4856694.05"/>
        <lane id="gneE10_2" index="2" speed="13.89" length="344.77" width="3.00" shape="623950.87,4857038.82 623950.94,4856694.05"/>
    </edge>
    <edge id="gneE11" from="gneJ16" to="gneJ17" priority="-1">
        <lane id="gneE11_0" index="0" speed="13.89" length="323.30" width="3.00" shape="623945.04,4857388.13 623944.88,4857064.83"/>
        <lane id="gneE11_1" index="1" speed="13.89" length="323.30" width="3.00" shape="623948.04,4857388.13 623947.88,4857064.83"/>
        <lane id="gneE11_2" index="2" speed="13.89" length="323.30" width="3.00" shape="623951.04,4857388.13 623950.88,4857064.83"/>
    </edge>
    <edge id="gneE12" from="gneJ17" to="gneJ16" priority="-1">
        <lane id="gneE12_0" index="0" speed="13.89" length="323.30" width="3.00" shape="623959.88,4857064.83 623960.04,4857388.13"/>
        <lane id="gneE12_1" index="1" speed="13.89" length="323.30" width="3.00" shape="623956.88,4857064.83 623957.04,4857388.13"/>
        <lane id="gneE12_2" index="2" speed="13.89" length="323.30" width="3.00" shape="623953.88,4857064.83 623954.04,4857388.13"/>
    </edge>
    <edge id="gneE3" from="gneJ6" to="gneJ17" priority="-1">
        <lane id="gneE3_0" index="0" speed="13.89" length="396.91" width="3.00" shape="624362.29,4857059.53 623965.38,4857059.33"/>
        <lane id="gneE3_1" index="1" speed="13.89" length="396.91" width="3.00" shape="624362.29,4857056.53 623965.38,4857056.33"/>
        <lane id="gneE3_2" index="2" speed="13.89" length="396.91" width="3.00" shape="624362.29,4857053.53 623965.38,4857053.33"/>
    </edge>
    <edge id="gneE4" from="gneJ17" to="gneJ6" priority="-1">
        <lane id="gneE4_0" index="0" speed="13.89" length="396.91" width="3.00" shape="623965.38,4857044.33 624362.29,4857044.53"/>
        <lane id="gneE4_1" index="1" speed="13.89" length="396.91" width="3.00" shape="623965.38,4857047.33 624362.29,4857047.53"/>
        <lane id="gneE4_2" index="2" speed="13.89" length="396.91" width="3.00" shape="623965.38,4857050.33 624362.29,4857050.53"/>
    </edge>
    <edge id="gneE6" from="gneJ10" to="gneJ17" priority="-1">
        <lane id="gneE6_0" index="0" speed="13.89" length="511.37" width="3.00" shape="623428.00,4857044.46 623939.37,4857044.32"/>
        <lane id="gneE6_1" index="1" speed="13.89" length="511.37" width="3.00" shape="623428.00,4857047.46 623939.37,4857047.32"/>
        <lane id="gneE6_2" index="2" speed="13.89" length="511.37" width="3.00" shape="623428.00,4857050.46 623939.37,4857050.32"/>
    </edge>
    <edge id="gneE7" from="gneJ17" to="gneJ10" priority="-1">
        <lane id="gneE7_0" index="0" speed="13.89" length="511.37" width="3.00" shape="623939.37,4857059.32 623428.00,4857059.46"/>
        <lane id="gneE7_1" index="1" speed="13.89" length="511.37" width="3.00" shape="623939.37,4857056.32 623428.00,4857056.46"/>
        <lane id="gneE7_2" index="2" speed="13.89" length="511.37" width="3.00" shape="623939.37,4857053.32 623428.00,4857053.46"/>
    </edge>
    <edge id="gneE8" from="gneJ12" to="gneJ17" priority="-1">
        <lane id="gneE8_0" index="0" speed="13.89" length="344.77" width="3.00" shape="623959.94,4856694.05 623959.87,4857038.82"/>
        <lane id="gneE8_1" index="1" speed="13.89" length="344.77" width="3.00" shape="623956.94,4856694.05 623956.87,4857038.82"/>
        <lane id="gneE8_2" index="2" speed="13.89" length="344.77" width="3.00" shape="623953.94,4856694.05 623953.87,4857038.82"/>
    </edge>

    <junction id="gneJ10" type="dead_end" x="623428.00" y="4857051.96" incLanes="gneE7_0 gneE7_1 gneE7_2" intLanes="" shape="623428.00,4857051.96 623428.00,4857060.96 623428.00,4857051.96"/>
    <junction id="gneJ12" type="dead_end" x="623952.44" y="4856694.05" incLanes="gneE10_0 gneE10_1 gneE10_2" intLanes="" shape="623952.44,4856694.05 623943.44,4856694.05 623952.44,4856694.05"/>
    <junction id="gneJ16" type="dead_end" x="623952.54" y="4857388.13" incLanes="gneE12_0 gneE12_1 gneE12_2" intLanes="" shape="623952.54,4857388.13 623961.54,4857388.13 623952.54,4857388.13"/>
    <junction id="gneJ17" type="priority" x="623952.37" y="4857051.82" incLanes="gneE11_0 gneE11_1 gneE11_2 gneE3_0 gneE3_1 gneE3_2 gneE8_0 gneE8_1 gneE8_2 gneE6_0 gneE6_1 gneE6_2" intLanes=":gneJ17_0_0 :gneJ17_1_0 :gneJ17_1_1 :gneJ17_1_2 :gneJ17_25_0 :gneJ17_26_0 :gneJ17_6_0 :gneJ17_7_0 :gneJ17_7_1 :gneJ17_7_2 :gneJ17_10_0 :gneJ17_11_0 :gneJ17_12_0 :gneJ17_13_0 :gneJ17_13_1 :gneJ17_13_2 :gneJ17_27_0 :gneJ17_28_0 :gneJ17_18_0 :gneJ17_19_0 :gneJ17_19_1 :gneJ17_19_2 :gneJ17_19_3 :gneJ17_23_0 :gneJ17_24_0" shape="623943.38,4857064.83 623961.38,4857064.82 623961.82,4857062.60 623962.38,4857061.83 623963.15,4857061.27 623964.15,4857060.94 623965.37,4857060.83 623965.38,4857042.83 623963.15,4857042.38 623962.37,4857041.83 623961.82,4857041.05 623961.48,4857040.05 623961.37,4857038.82 623943.37,4857038.82 623942.93,4857041.04 623942.37,4857041.82 623941.59,4857042.38 623940.59,4857042.71 623939.37,4857042.82 623939.37,4857060.82 623941.60,4857061.27 623942.38,4857061.83 623942.93,4857062.61 623943.26,4857063.61">
        <request index="0"  response="0000000000000000000000000" foes="0000000000000001110000000" cont="0"/>
        <request index="1"  response="0000000000000000000000000" foes="0111111110000011110000000" cont="0"/>
        <request index="2"  response="0000000000000000000000000" foes="0111111110000011110000000" cont="0"/>
        <request index="3"  response="0000000000000000000000000" foes="0111111110000011110000000" cont="0"/>
        <request index="4"  response="0000000001110000000000000" foes="0111110001110111110000000" cont="1"/>
        <request index="5"  response="0100000001110000000000000" foes="0100000001110000000000000" cont="1"/>
        <request index="6"  response="0000000001110000000000000" foes="0000000001110000000000000" cont="0"/>
        <request index="7"  response="0000000011110000000011111" foes="1100000011110000000011111" cont="0"/>
        <request index="8"  response="0000000011110000000011111" foes="1100000011110000000011111" cont="0"/>
        <request index="9"  response="0000000011110000000011111" foes="1100000011110000000011111" cont="0"/>
        <request index="10" response="0011110011110000000011110" foes="0011110111110000000011110" cont="0"/>
        <request index="11" response="0011110000000000000010000" foes="0011110000000000000010000" cont="0"/>
        <request index="12" response="0000000000000000000000000" foes="0011110000000000000000000" cont="0"/>
        <request index="13" response="0000000000000000000000000" foes="0111110000000011111110000" cont="0"/>
        <request index="14" response="0000000000000000000000000" foes="0111110000000011111110000" cont="0"/>
        <request index="15" response="0000000000000000000000000" foes="0111110000000011111110000" cont="0"/>
        <request index="16" response="0000000000000000000001110" foes="1111110000000011110001110" cont="1"/>
        <request index="17" response="0000000000000010000001110" foes="0000000000000010000001110" cont="1"/>
        <request index="18" response="0000000000000000000001110" foes="0000000000000000000001110" cont="0"/>
        <request index="19" response="0000100011111000000011110" foes="0000100011111110000011110" cont="0"/>
        <request index="20" response="0000000011111000000011110" foes="0000010011111110000011110" cont="0"/>
        <request index="21" response="0000000011111000000011110" foes="0000000011111110000011110" cont="0"/>
        <request index="22" response="0000000011111000000011110" foes="0000000011111110000011110" cont="0"/>
        <request index="23" response="0000000011110001110011110" foes="0000000011110001110111110" cont="0"/>
        <request index="24" response="0000000010000001110000000" foes="0000000010000001110000000" cont="0"/>
    </junction>
    <junction id="gneJ6" type="dead_end" x="624362.29" y="4857052.03" incLanes="gneE4_0 gneE4_1 gneE4_2" intLanes="" shape="624362.29,4857052.03 624362.29,4857043.03 624362.29,4857052.03"/>

    <junction id=":gneJ17_25_0" type="internal" x="623952.38" y="4857057.49" incLanes=":gneJ17_4_0 gneE8_0 gneE8_1 gneE8_2" intLanes=":gneJ17_7_0 :gneJ17_7_1 :gneJ17_7_2 :gneJ17_10_0 :gneJ17_11_0 :gneJ17_12_0 :gneJ17_13_0 :gneJ17_13_1 :gneJ17_13_2 :gneJ17_19_0 :gneJ17_19_1 :gneJ17_19_2 :gneJ17_19_3 :gneJ17_23_0"/>
    <junction id=":gneJ17_26_0" type="internal" x="623952.38" y="4857063.33" incLanes=":gneJ17_5_0 gneE3_0 gneE6_2 gneE8_0 gneE8_1 gneE8_2" intLanes=":gneJ17_6_0 :gneJ17_13_0 :gneJ17_13_1 :gneJ17_13_2 :gneJ17_23_0"/>
    <junction id=":gneJ17_27_0" type="internal" x="623952.37" y="4857046.15" incLanes=":gneJ17_16_0 gneE11_0 gneE11_1 gneE11_2" intLanes=":gneJ17_0_0 :gneJ17_1_0 :gneJ17_1_1 :gneJ17_1_2 :gneJ17_7_0 :gneJ17_7_1 :gneJ17_7_2 :gneJ17_10_0 :gneJ17_19_0 :gneJ17_19_1 :gneJ17_19_2 :gneJ17_19_3 :gneJ17_23_0 :gneJ17_24_0"/>
    <junction id=":gneJ17_28_0" type="internal" x="623952.37" y="4857040.32" incLanes=":gneJ17_17_0 gneE11_0 gneE11_1 gneE11_2 gneE3_2 gneE6_0" intLanes=":gneJ17_1_0 :gneJ17_1_1 :gneJ17_1_2 :gneJ17_10_0 :gneJ17_18_0"/>

    <connection from="gneE11" to="gneE7" fromLane="0" toLane="0" via=":gneJ17_0_0" dir="r" state="M"/>
    <connection from="gneE11" to="gneE10" fromLane="0" toLane="0" via=":gneJ17_1_0" dir="s" state="M"/>
    <connection from="gneE11" to="gneE10" fromLane="1" toLane="1" via=":gneJ17_1_1" dir="s" state="M"/>
    <connection from="gneE11" to="gneE10" fromLane="2" toLane="2" via=":gneJ17_1_2" dir="s" state="M"/>
    <connection from="gneE11" to="gneE4" fromLane="2" toLane="2" via=":gneJ17_4_0" dir="l" state="m"/>
    <connection from="gneE11" to="gneE12" fromLane="2" toLane="2" via=":gneJ17_5_0" dir="t" state="m"/>
    <connection from="gneE3" to="gneE12" fromLane="0" toLane="0" via=":gneJ17_6_0" dir="r" state="m"/>
    <connection from="gneE3" to="gneE7" fromLane="0" toLane="0" via=":gneJ17_7_0" dir="s" state="m"/>
    <connection from="gneE3" to="gneE7" fromLane="1" toLane="1" via=":gneJ17_7_1" dir="s" state="m"/>
    <connection from="gneE3" to="gneE7" fromLane="2" toLane="2" via=":gneJ17_7_2" dir="s" state="m"/>
    <connection from="gneE3" to="gneE10" fromLane="2" toLane="2" via=":gneJ17_10_0" dir="l" state="m"/>
    <connection from="gneE3" to="gneE4" fromLane="2" toLane="2" via=":gneJ17_11_0" dir="t" state="m"/>
    <connection from="gneE6" to="gneE10" fromLane="0" toLane="0" via=":gneJ17_18_0" dir="r" state="m"/>
    <connection from="gneE6" to="gneE4" fromLane="0" toLane="0" via=":gneJ17_19_0" dir="s" state="m"/>
    <connection from="gneE6" to="gneE4" fromLane="1" toLane="0" via=":gneJ17_19_1" dir="s" state="m"/>
    <connection from="gneE6" to="gneE4" fromLane="1" toLane="1" via=":gneJ17_19_2" dir="s" state="m"/>
    <connection from="gneE6" to="gneE4" fromLane="2" toLane="2" via=":gneJ17_19_3" dir="s" state="m"/>
    <connection from="gneE6" to="gneE12" fromLane="2" toLane="2" via=":gneJ17_23_0" dir="l" state="m"/>
    <connection from="gneE6" to="gneE7" fromLane="2" toLane="2" via=":gneJ17_24_0" dir="t" state="m"/>
    <connection from="gneE8" to="gneE4" fromLane="0" toLane="0" via=":gneJ17_12_0" dir="r" state="M"/>
    <connection from="gneE8" to="gneE12" fromLane="0" toLane="0" via=":gneJ17_13_0" dir="s" state="M"/>
    <connection from="gneE8" to="gneE12" fromLane="1" toLane="1" via=":gneJ17_13_1" dir="s" state="M"/>
    <connection from="gneE8" to="gneE12" fromLane="2" toLane="2" via=":gneJ17_13_2" dir="s" state="M"/>
    <connection from="gneE8" to="gneE7" fromLane="2" toLane="2" via=":gneJ17_16_0" dir="l" state="m"/>
    <connection from="gneE8" to="gneE10" fromLane="2" toLane="2" via=":gneJ17_17_0" dir="t" state="m"/>

    <connection from=":gneJ17_0" to="gneE7" fromLane="0" toLane="0" dir="r" state="M"/>
    <connection from=":gneJ17_1" to="gneE10" fromLane="0" toLane="0" dir="s" state="M"/>
    <connection from=":gneJ17_1" to="gneE10" fromLane="1" toLane="1" dir="s" state="M"/>
    <connection from=":gneJ17_1" to="gneE10" fromLane="2" toLane="2" dir="s" state="M"/>
    <connection from=":gneJ17_4" to="gneE4" fromLane="0" toLane="2" via=":gneJ17_25_0" dir="l" state="m"/>
    <connection from=":gneJ17_25" to="gneE4" fromLane="0" toLane="2" dir="l" state="M"/>
    <connection from=":gneJ17_5" to="gneE12" fromLane="0" toLane="2" via=":gneJ17_26_0" dir="t" state="m"/>
    <connection from=":gneJ17_26" to="gneE12" fromLane="0" toLane="2" dir="t" state="M"/>
    <connection from=":gneJ17_6" to="gneE12" fromLane="0" toLane="0" dir="r" state="M"/>
    <connection from=":gneJ17_7" to="gneE7" fromLane="0" toLane="0" dir="s" state="M"/>
    <connection from=":gneJ17_7" to="gneE7" fromLane="1" toLane="1" dir="s" state="M"/>
    <connection from=":gneJ17_7" to="gneE7" fromLane="2" toLane="2" dir="s" state="M"/>
    <connection from=":gneJ17_10" to="gneE10" fromLane="0" toLane="2" dir="l" state="M"/>
    <connection from=":gneJ17_11" to="gneE4" fromLane="0" toLane="2" dir="t" state="M"/>
    <connection from=":gneJ17_12" to="gneE4" fromLane="0" toLane="0" dir="r" state="M"/>
    <connection from=":gneJ17_13" to="gneE12" fromLane="0" toLane="0" dir="s" state="M"/>
    <connection from=":gneJ17_13" to="gneE12" fromLane="1" toLane="1" dir="s" state="M"/>
    <connection from=":gneJ17_13" to="gneE12" fromLane="2" toLane="2" dir="s" state="M"/>
    <connection from=":gneJ17_16" to="gneE7" fromLane="0" toLane="2" via=":gneJ17_27_0" dir="l" state="m"/>
    <connection from=":gneJ17_27" to="gneE7" fromLane="0" toLane="2" dir="l" state="M"/>
    <connection from=":gneJ17_17" to="gneE10" fromLane="0" toLane="2" via=":gneJ17_28_0" dir="t" state="m"/>
    <connection from=":gneJ17_28" to="gneE10" fromLane="0" toLane="2" dir="t" state="M"/>
    <connection from=":gneJ17_18" to="gneE10" fromLane="0" toLane="0" dir="r" state="M"/>
    <connection from=":gneJ17_19" to="gneE4" fromLane="0" toLane="0" dir="s" state="M"/>
    <connection from=":gneJ17_19" to="gneE4" fromLane="1" toLane="0" dir="s" state="M"/>
    <connection from=":gneJ17_19" to="gneE4" fromLane="2" toLane="1" dir="s" state="M"/>
    <connection from=":gneJ17_19" to="gneE4" fromLane="3" toLane="2" dir="s" state="M"/>
    <connection from=":gneJ17_23" to="gneE12" fromLane="0" toLane="2" dir="l" state="M"/>
    <connection from=":gneJ17_24" to="gneE7" fromLane="0" toLane="2" dir="t" state="M"/>

</net>
